/*---------------------------------------------------------------------------*
Caelus 6.10
Web:   www.caelus-cml.com
\*---------------------------------------------------------------------------*/
FoamFile
{
    version     2.0;
    format      binary;
    class       dictionary;
    location    "constant";
    object      thermophysicalProperties;
}
// * * * * * * * * * * * * * * * * * * * * * * * * * * * * * * * * * * * * * //

thermoType hsPsiMixtureThermo<reactingMixture<gasThermoPhysics>>;

inertSpecie N2;

chemistryReader foamChemistryReader;

foamChemistryFile "$CAELUS_CASE/constant/reactions";

foamChemistryThermoFile "$CAELUS_CASE/constant/thermo.compressibleGas";

solids
{
    solidComponents
        (
        );
}


liquids
{
    liquidComponents
        (
            H2O
            N2
        );
    H2O
    {
        defaultCoeffs   yes;
    }
    N2
    {
        defaultCoeffs   yes;
    }
}


// ************************************************************************* //
